LIG
     RDKit          3D

 51 54  0  0  0  0  0  0  0  0999 V2000
   20.8590  -13.5840   63.6120 C   0  0  0  0  0  0  0  0  0  0  0  0
   21.0730  -13.5560   65.1170 C   0  0  0  0  0  0  0  0  0  0  0  0
   20.0420  -12.6890   65.8480 C   0  0  0  0  0  0  0  0  0  0  0  0
   19.8740  -12.9530   67.3480 C   0  0  0  0  0  0  0  0  0  0  0  0
   18.7410  -13.9080   67.7460 C   0  0  0  0  0  0  0  0  0  0  0  0
   19.2000  -15.2520   68.0540 N   0  0  0  0  0  0  0  0  0  0  0  0
   18.5990  -16.3920   67.5930 C   0  0  0  0  0  0  0  0  0  0  0  0
   19.2620  -17.5180   68.0380 C   0  0  0  0  0  0  0  0  0  0  0  0
   18.7590  -18.8890   67.6080 C   0  0  0  0  0  0  0  0  0  0  0  0
   18.8970  -19.1570   66.4220 O   0  0  0  0  0  0  0  0  0  0  0  0
   18.1270  -19.7910   68.4960 N   0  0  0  0  0  0  0  0  0  0  0  0
   16.7300  -19.8840   68.7610 C   0  0  0  0  0  0  0  0  0  0  0  0
   15.9530  -18.7430   68.6060 C   0  0  0  0  0  0  0  0  0  0  0  0
   14.5940  -18.7520   68.8540 C   0  0  0  0  0  0  0  0  0  0  0  0
   13.9750  -19.9170   69.2650 C   0  0  0  0  0  0  0  0  0  0  0  0
   14.7150  -21.0980   69.4270 C   0  0  0  0  0  0  0  0  0  0  0  0
   14.0840  -22.2830   69.8300 C   0  0  0  0  0  0  0  0  0  0  0  0
   14.8090  -23.4680   69.9860 C   0  0  0  0  0  0  0  0  0  0  0  0
   16.1610  -23.4900   69.7540 C   0  0  0  0  0  0  0  0  0  0  0  0
   16.7960  -22.3300   69.3620 C   0  0  0  0  0  0  0  0  0  0  0  0
   16.1100  -21.1030   69.1790 C   0  0  0  0  0  0  0  0  0  0  0  0
   20.3560  -16.9790   68.8440 C   0  0  0  0  0  0  0  0  0  0  0  0
   21.3910  -17.5380   69.5670 C   0  0  0  0  0  0  0  0  0  0  0  0
   22.2920  -16.7670   70.2420 C   0  0  0  0  0  0  0  0  0  0  0  0
   22.2000  -15.3900   70.2160 C   0  0  0  0  0  0  0  0  0  0  0  0
   21.1940  -14.7600   69.5090 C   0  0  0  0  0  0  0  0  0  0  0  0
   20.2780  -15.5720   68.8270 C   0  0  0  0  0  0  0  0  0  0  0  0
   21.7530  -13.2880   63.0690 H   0  0  0  0  0  0  0  0  0  0  0  0
   20.5710  -14.5820   63.2760 H   0  0  0  0  0  0  0  0  0  0  0  0
   20.0650  -12.8840   63.3380 H   0  0  0  0  0  0  0  0  0  0  0  0
   22.0920  -13.2220   65.3380 H   0  0  0  0  0  0  0  0  0  0  0  0
   20.9970  -14.5820   65.4990 H   0  0  0  0  0  0  0  0  0  0  0  0
   19.0730  -12.7980   65.3450 H   0  0  0  0  0  0  0  0  0  0  0  0
   20.3270  -11.6350   65.7210 H   0  0  0  0  0  0  0  0  0  0  0  0
   20.8280  -13.3400   67.7270 H   0  0  0  0  0  0  0  0  0  0  0  0
   19.7100  -12.0060   67.8680 H   0  0  0  0  0  0  0  0  0  0  0  0
   18.1820  -13.5310   68.6100 H   0  0  0  0  0  0  0  0  0  0  0  0
   18.0190  -13.9940   66.9250 H   0  0  0  0  0  0  0  0  0  0  0  0
   17.7230  -16.3340   66.9590 H   0  0  0  0  0  0  0  0  0  0  0  0
   18.6430  -20.6460   68.6240 H   0  0  0  0  0  0  0  0  0  0  0  0
   16.3860  -17.8010   68.2870 H   0  0  0  0  0  0  0  0  0  0  0  0
   14.0150  -17.8400   68.7260 H   0  0  0  0  0  0  0  0  0  0  0  0
   12.9030  -19.9020   69.4560 H   0  0  0  0  0  0  0  0  0  0  0  0
   13.0140  -22.2990   70.0240 H   0  0  0  0  0  0  0  0  0  0  0  0
   14.2970  -24.3730   70.2950 H   0  0  0  0  0  0  0  0  0  0  0  0
   16.7280  -24.4060   69.8770 H   0  0  0  0  0  0  0  0  0  0  0  0
   17.8640  -22.4090   69.1940 H   0  0  0  0  0  0  0  0  0  0  0  0
   21.5070  -18.6020   69.6090 H   0  0  0  0  0  0  0  0  0  0  0  0
   23.0730  -17.2650   70.7930 H   0  0  0  0  0  0  0  0  0  0  0  0
   22.9220  -14.7980   70.7510 H   0  0  0  0  0  0  0  0  0  0  0  0
   21.1310  -13.6770   69.4950 H   0  0  0  0  0  0  0  0  0  0  0  0
  1  2  1  0
  2  3  1  0
  3  4  1  0
  4  5  1  0
  5  6  1  0
  6  7  1  0
  7  8  2  0
  8  9  1  0
  9 10  2  0
  9 11  1  0
 11 12  1  0
 12 13  2  0
 13 14  1  0
 14 15  2  0
 15 16  1  0
 16 17  2  0
 17 18  1  0
 18 19  2  0
 19 20  1  0
 20 21  2  0
  8 22  1  0
 22 23  2  0
 23 24  1  0
 24 25  2  0
 25 26  1  0
 26 27  2  0
 27  6  1  0
 21 12  1  0
 27 22  1  0
 21 16  1  0
  1 28  1  0
  1 29  1  0
  1 30  1  0
  2 31  1  0
  2 32  1  0
  3 33  1  0
  3 34  1  0
  4 35  1  0
  4 36  1  0
  5 37  1  0
  5 38  1  0
  7 39  1  0
 11 40  1  0
 13 41  1  0
 14 42  1  0
 15 43  1  0
 17 44  1  0
 18 45  1  0
 19 46  1  0
 20 47  1  0
 23 48  1  0
 24 49  1  0
 25 50  1  0
 26 51  1  0
A    1
 C1 
A    2
 C2 
A    3
 C3 
A    4
 C4 
A    5
 C5 
A    6
 N1 
A    7
 C6 
A    8
 C7 
A    9
 C8 
A   10
 O1 
A   11
 N2 
A   12
 C9 
A   13
 C10
A   14
 C11
A   15
 C12
A   16
 C13
A   17
 C14
A   18
 C15
A   19
 C16
A   20
 C17
A   21
 C18
A   22
 C19
A   23
 C20
A   24
 C21
A   25
 C22
A   26
 C23
A   27
 C24
A   28
 H1 
A   29
 H2 
A   30
 H3 
A   31
 H4 
A   32
 H5 
A   33
 H6 
A   34
 H7 
A   35
 H8 
A   36
 H9 
A   37
 H10
A   38
 H11
A   39
 H12
A   40
 H13
A   41
 H14
A   42
 H15
A   43
 H16
A   44
 H17
A   45
 H18
A   46
 H19
A   47
 H20
A   48
 H21
A   49
 H22
A   50
 H23
A   51
 H24
M  END
