NCS1-x0125_0B
     RDKit          3D

 14 15  0  0  0  0  0  0  0  0999 V2000
   18.4130  -19.7250   66.7740 C   0  0  0  0  0  0  0  0  0  0  0  0
   16.7400  -19.4370   66.3400 S   0  0  2  0  0  0  0  0  0  0  0  0
   16.3690  -20.3600   65.3070 O   0  0  0  0  0  0  0  0  0  0  0  0
   16.5620  -18.0310   66.0970 O   0  0  0  0  0  0  0  0  0  0  0  0
   15.8350  -19.8560   67.7970 C   0  0  0  0  0  0  0  0  0  0  0  0
   15.0240  -18.9090   68.3650 C   0  0  0  0  0  0  0  0  0  0  0  0
   14.2710  -19.2140   69.5110 C   0  0  0  0  0  0  0  0  0  0  0  0
   14.3120  -20.4540   70.0530 C   0  0  0  0  0  0  0  0  0  0  0  0
   15.1120  -21.4680   69.4720 C   0  0  0  0  0  0  0  0  0  0  0  0
   15.1960  -22.7620   70.0250 C   0  0  0  0  0  0  0  0  0  0  0  0
   16.0240  -23.6660   69.4450 C   0  0  0  0  0  0  0  0  0  0  0  0
   16.7660  -23.2880   68.3130 C   0  0  0  0  0  0  0  0  0  0  0  0
   16.7080  -22.1000   67.7480 N   0  0  0  0  0  0  0  0  0  0  0  0
   15.8930  -21.1750   68.3260 C   0  0  0  0  0  0  0  0  0  0  0  0
  2  1  1  1
  3  2  2  0
  4  2  2  0
  5  2  1  0
  6  5  2  0
  7  6  1  0
  8  7  2  0
  9  8  1  0
 10  9  1  0
 11 10  2  0
 12 11  1  0
 13 12  2  0
 14  9  2  0
 14  5  1  0
 14 13  1  0
M  END
$$$$
NCS1-x0128_0B
     RDKit          3D

 15 16  0  0  0  0  0  0  0  0999 V2000
   17.9200  -22.9010   67.8120 C   0  0  0  0  0  0  0  0  0  0  0  0
   18.3400  -21.6450   67.3020 O   0  0  0  0  0  0  0  0  0  0  0  0
   17.2900  -20.7350   67.0320 C   0  0  0  0  0  0  0  0  0  0  0  0
   17.8290  -19.3700   66.6790 C   0  0  2  0  0  0  0  0  0  0  0  0
   18.2670  -18.6210   67.9220 C   0  0  0  0  0  0  0  0  0  0  0  0
   18.5310  -17.1940   67.6690 N   0  0  0  0  0  0  0  0  0  0  0  0
   17.4880  -16.5050   66.8980 C   0  0  0  0  0  0  0  0  0  0  0  0
   17.0930  -17.3230   65.6920 C   0  0  0  0  0  0  0  0  0  0  0  0
   16.7470  -18.6560   66.0680 O   0  0  0  0  0  0  0  0  0  0  0  0
   19.5770  -16.5350   68.2600 C   0  0  0  0  0  0  0  0  0  0  0  0
   20.3990  -17.1780   69.2010 C   0  0  0  0  0  0  0  0  0  0  0  0
   21.4140  -16.4540   69.7800 C   0  0  0  0  0  0  0  0  0  0  0  0
   21.5740  -15.1150   69.4800 C   0  0  0  0  0  0  0  0  0  0  0  0
   20.7280  -14.5500   68.5560 C   0  0  0  0  0  0  0  0  0  0  0  0
   19.7070  -15.2160   67.9890 N   0  0  0  0  0  0  0  0  0  0  0  0
  2  1  1  0
  3  2  1  0
  4  3  1  1
  5  4  1  0
  6  5  1  0
  7  6  1  0
  8  7  1  0
  9  8  1  0
  9  4  1  0
 10  6  1  0
 11 10  2  0
 12 11  1  0
 13 12  2  0
 14 13  1  0
 15 10  1  0
 15 14  2  0
M  END
$$$$
