LIG
     RDKit          3D

 37 38  0  0  0  0  0  0  0  0999 V2000
   35.4598    9.1364    3.5473 C   0  0  0  0  0  0  0  0  0  0  0  0
   34.6347    9.9867    4.4681 C   0  0  0  0  0  0  0  0  0  0  0  0
   34.6462   11.2065    4.3598 O   0  0  0  0  0  0  0  0  0  0  0  0
   33.8824    9.2153    5.3311 N   0  0  0  0  0  0  0  0  0  0  0  0
   32.9047    9.6423    6.2414 C   0  0  0  0  0  0  0  0  0  0  0  0
   32.2743    8.7200    7.0731 C   0  0  0  0  0  0  0  0  0  0  0  0
   31.3312    8.9871    7.9853 N   0  0  0  0  0  0  0  0  0  0  0  0
   30.9776   10.2672    8.0755 C   0  0  0  0  0  0  0  0  0  0  0  0
   31.5486   11.2598    7.3033 C   0  0  0  0  0  0  0  0  0  0  0  0
   31.0864   12.4976    7.5141 O   0  0  0  0  0  0  0  0  0  0  0  0
   31.8746   13.5399    7.0206 C   0  0  0  0  0  0  0  0  0  0  0  0
   33.2826   13.6979    7.5833 C   0  0  0  0  0  0  0  0  0  0  0  0
   33.4115   13.6278    8.8101 O   0  0  0  0  0  0  0  0  0  0  0  0
   34.3634   13.8967    6.7373 N   0  0  0  0  0  0  0  0  0  0  0  0
   35.6476   14.0921    7.3967 C   0  0  0  0  0  0  0  0  0  0  0  0
   36.7777   13.6598    6.4726 C   0  0  0  0  0  0  0  0  0  0  0  0
   36.8062   14.5167    5.3236 O   0  0  0  0  0  0  0  0  0  0  0  0
   35.6104   14.3066    4.5602 C   0  0  0  0  0  0  0  0  0  0  0  0
   34.3184   14.4674    5.3860 C   0  0  0  0  0  0  0  0  0  0  0  0
   32.5113   10.9448    6.3660 C   0  0  0  0  0  0  0  0  0  0  0  0
   35.7777    8.2089    4.0320 H   0  0  0  0  0  0  0  0  0  0  0  0
   34.8740    8.8969    2.6558 H   0  0  0  0  0  0  0  0  0  0  0  0
   36.3591    9.6866    3.2552 H   0  0  0  0  0  0  0  0  0  0  0  0
   34.0591    8.2066    5.3380 H   0  0  0  0  0  0  0  0  0  0  0  0
   32.5490    7.6845    7.0679 H   0  0  0  0  0  0  0  0  0  0  0  0
   30.2057   10.4946    8.8048 H   0  0  0  0  0  0  0  0  0  0  0  0
   31.7882   13.6350    5.9375 H   0  0  0  0  0  0  0  0  0  0  0  0
   31.3351   14.3539    7.4846 H   0  0  0  0  0  0  0  0  0  0  0  0
   35.7006   13.5375    8.3373 H   0  0  0  0  0  0  0  0  0  0  0  0
   35.7166   15.1566    7.6339 H   0  0  0  0  0  0  0  0  0  0  0  0
   37.7466   13.7170    6.9750 H   0  0  0  0  0  0  0  0  0  0  0  0
   36.6578   12.6221    6.1402 H   0  0  0  0  0  0  0  0  0  0  0  0
   35.6704   13.3147    4.1087 H   0  0  0  0  0  0  0  0  0  0  0  0
   35.6093   15.0264    3.7348 H   0  0  0  0  0  0  0  0  0  0  0  0
   33.4600   14.0947    4.8248 H   0  0  0  0  0  0  0  0  0  0  0  0
   34.1771   15.5286    5.5519 H   0  0  0  0  0  0  0  0  0  0  0  0
   32.9374   11.6992    5.7250 H   0  0  0  0  0  0  0  0  0  0  0  0
  1  2  1  0
  2  3  2  0
  2  4  1  0
  4  5  1  0
  5  6  2  0
  6  7  1  0
  7  8  2  0
  8  9  1  0
  9 10  1  0
 10 11  1  0
 11 12  1  0
 12 13  2  0
 12 14  1  0
 14 15  1  0
 15 16  1  0
 16 17  1  0
 17 18  1  0
 18 19  1  0
  9 20  2  0
 20  5  1  0
 19 14  1  0
  1 21  1  0
  1 22  1  0
  1 23  1  0
  4 24  1  0
  6 25  1  0
  8 26  1  0
 11 27  1  0
 11 28  1  0
 15 29  1  0
 15 30  1  0
 16 31  1  0
 16 32  1  0
 18 33  1  0
 18 34  1  0
 19 35  1  0
 19 36  1  0
 20 37  1  0
M  END
