LIG
     RDKit          3D

 47 49  0  0  0  0  0  0  0  0999 V2000
    8.9990  -27.3390   60.1440 C   0  0  0  0  0  0  0  0  0  0  0  0
    8.2300  -28.6270   59.9900 C   0  0  0  0  0  0  0  0  0  0  0  0
    8.2370  -29.2240   58.9220 O   0  0  0  0  0  0  0  0  0  0  0  0
    7.5390  -28.9990   61.1340 N   0  0  0  0  0  0  0  0  0  0  0  0
    7.8900  -28.7640   62.4780 C   0  0  0  0  0  0  0  0  0  0  0  0
    8.9010  -27.8880   62.8540 C   0  0  0  0  0  0  0  0  0  0  0  0
    9.2190  -27.6760   64.1940 C   0  0  0  0  0  0  0  0  0  0  0  0
   10.2680  -26.7560   64.4310 N   0  0  0  0  0  0  0  0  0  0  0  0
   10.9700  -26.0080   63.4910 C   0  0  0  0  0  0  0  0  0  0  0  0
   12.1660  -25.3070   64.0800 C   0  0  0  0  0  0  0  0  0  0  0  0
   10.7150  -25.8790   62.2980 O   0  0  0  0  0  0  0  0  0  0  0  0
    8.5050  -28.3660   65.1850 C   0  0  0  0  0  0  0  0  0  0  0  0
    7.4790  -29.2620   64.8310 C   0  0  0  0  0  0  0  0  0  0  0  0
    6.6780  -30.0360   65.8450 C   0  0  0  0  0  0  0  0  0  0  0  0
    6.6500  -29.6850   67.0180 O   0  0  0  0  0  0  0  0  0  0  0  0
    6.0150  -31.1400   65.3850 N   0  0  0  0  0  0  0  0  0  0  0  0
    4.5690  -31.3230   65.4280 C   0  0  0  0  0  0  0  0  0  0  0  0
    4.2830  -32.0420   64.1900 C   0  0  0  0  0  0  0  0  0  0  0  0
    4.8040  -31.7100   63.0950 N   0  0  0  0  0  0  0  0  0  0  0  0
    4.3380  -32.5860   62.2090 C   0  0  0  0  0  0  0  0  0  0  0  0
    4.8500  -32.3480   60.8810 C   0  0  0  0  0  0  0  0  0  0  0  0
    4.9620  -33.2730   59.8950 C   0  0  0  0  0  0  0  0  0  0  0  0
    5.4990  -32.8640   58.6620 C   0  0  0  0  0  0  0  0  0  0  0  0
    5.8980  -31.5610   58.4840 C   0  0  0  0  0  0  0  0  0  0  0  0
    5.7450  -30.7080   59.5350 C   0  0  0  0  0  0  0  0  0  0  0  0
    5.2310  -31.0690   60.7150 N   0  0  0  0  0  0  0  0  0  0  0  0
    3.4940  -33.5020   62.7290 N   0  0  0  0  0  0  0  0  0  0  0  0
    3.4560  -33.1280   64.0940 O   0  0  0  0  0  0  0  0  0  0  0  0
    7.1810  -29.4510   63.4700 C   0  0  0  0  0  0  0  0  0  0  0  0
    8.7410  -26.6600   59.3240 H   0  0  0  0  0  0  0  0  0  0  0  0
    8.7690  -26.8350   61.0770 H   0  0  0  0  0  0  0  0  0  0  0  0
   10.0660  -27.5620   60.1200 H   0  0  0  0  0  0  0  0  0  0  0  0
    6.7450  -29.6130   60.9950 H   0  0  0  0  0  0  0  0  0  0  0  0
    9.4640  -27.3490   62.1050 H   0  0  0  0  0  0  0  0  0  0  0  0
   10.6040  -26.7130   65.3880 H   0  0  0  0  0  0  0  0  0  0  0  0
   12.8320  -26.0220   64.5780 H   0  0  0  0  0  0  0  0  0  0  0  0
   11.8330  -24.5780   64.8240 H   0  0  0  0  0  0  0  0  0  0  0  0
   12.7130  -24.7910   63.2840 H   0  0  0  0  0  0  0  0  0  0  0  0
    8.7370  -28.2170   66.2330 H   0  0  0  0  0  0  0  0  0  0  0  0
    6.5590  -31.9520   65.1180 H   0  0  0  0  0  0  0  0  0  0  0  0
    4.3190  -31.9280   66.3060 H   0  0  0  0  0  0  0  0  0  0  0  0
    4.0490  -30.3620   65.4850 H   0  0  0  0  0  0  0  0  0  0  0  0
    4.6410  -34.2870   60.0730 H   0  0  0  0  0  0  0  0  0  0  0  0
    5.6040  -33.5660   57.8450 H   0  0  0  0  0  0  0  0  0  0  0  0
    6.3180  -31.2190   57.5440 H   0  0  0  0  0  0  0  0  0  0  0  0
    6.0420  -29.6770   59.4560 H   0  0  0  0  0  0  0  0  0  0  0  0
    6.3850  -30.1430   63.1990 H   0  0  0  0  0  0  0  0  0  0  0  0
  1  2  1  0
  2  3  2  0
  2  4  1  0
  4  5  1  0
  5  6  2  0
  6  7  1  0
  7  8  1  0
  8  9  1  0
  9 10  1  0
  9 11  2  0
  7 12  2  0
 12 13  1  0
 13 14  1  0
 14 15  2  0
 14 16  1  0
 16 17  1  0
 17 18  1  0
 18 19  2  0
 19 20  1  0
 20 21  1  0
 21 22  2  0
 22 23  1  0
 23 24  2  0
 24 25  1  0
 25 26  2  0
 20 27  2  0
 27 28  1  0
 13 29  2  0
 29  5  1  0
 28 18  1  0
 26 21  1  0
  1 30  1  0
  1 31  1  0
  1 32  1  0
  4 33  1  0
  6 34  1  0
  8 35  1  0
 10 36  1  0
 10 37  1  0
 10 38  1  0
 12 39  1  0
 16 40  1  0
 17 41  1  0
 17 42  1  0
 22 43  1  0
 23 44  1  0
 24 45  1  0
 25 46  1  0
 29 47  1  0
A    1
 C1 
A    2
 C2 
A    3
 O1 
A    4
 N1 
A    5
 C3 
A    6
 C4 
A    7
 C5 
A    8
 N2 
A    9
 C6 
A   10
 C7 
A   11
 O2 
A   12
 C8 
A   13
 C9 
A   14
 C10
A   15
 O3 
A   16
 N3 
A   17
 C11
A   18
 C12
A   19
 N4 
A   20
 C13
A   21
 C14
A   22
 C15
A   23
 C16
A   24
 C17
A   25
 C18
A   26
 N5 
A   27
 N6 
A   28
 O4 
A   29
 C19
A   30
 H1 
A   31
 H2 
A   32
 H3 
A   33
 H4 
A   34
 H5 
A   35
 H6 
A   36
 H7 
A   37
 H8 
A   38
 H9 
A   39
 H10
A   40
 H11
A   41
 H12
A   42
 H13
A   43
 H14
A   44
 H15
A   45
 H16
A   46
 H17
A   47
 H18
M  END
